<?xml version="1.0" encoding="UTF-8"?>

<!-- generated on 2026-04-19T06:19:54.798558+00:00 by Eclipse SUMO netconvert 1.26.0
<netconvertConfiguration xmlns:xsi="http://www.w3.org/2001/XMLSchema-instance" xsi:noNamespaceSchemaLocation="http://sumo.dlr.de/xsd/netconvertConfiguration.xsd">

    <input>
        <node-files value="scenarios/sumo_1b/t.nod.xml"/>
        <edge-files value="scenarios/sumo_1b/t.edg.xml"/>
    </input>

    <output>
        <output-file value="scenarios/sumo_1b/t.net.xml"/>
    </output>

    <pedestrian>
        <crossings.guess value="true"/>
    </pedestrian>

</netconvertConfiguration>
-->

<net version="1.20" junctionCornerDetail="5" walkingareas="true" limitTurnSpeed="5.50" xmlns:xsi="http://www.w3.org/2001/XMLSchema-instance" xsi:noNamespaceSchemaLocation="http://sumo.dlr.de/xsd/net_file.xsd">

    <location netOffset="50.00,60.00" convBoundary="0.00,0.00,100.00,60.00" origBoundary="-50.00,-60.00,50.00,0.00" projParameter="!"/>

    <edge id=":center_0" function="internal">
        <lane id=":center_0_0" index="0" disallow="pedestrian" speed="13.89" length="21.80" shape="60.90,64.80 39.10,64.80"/>
        <lane id=":center_0_1" index="1" disallow="pedestrian" speed="13.89" length="21.80" shape="60.90,61.60 39.10,61.60"/>
    </edge>
    <edge id=":center_2" function="internal">
        <lane id=":center_2_0" index="0" disallow="pedestrian" speed="9.44" length="5.01" shape="60.90,61.60 55.94,60.89"/>
    </edge>
    <edge id=":center_3" function="internal">
        <lane id=":center_3_0" index="0" disallow="pedestrian" speed="3.65" length="1.44" shape="60.90,61.60 59.70,60.80"/>
    </edge>
    <edge id=":center_11" function="internal">
        <lane id=":center_11_0" index="0" disallow="pedestrian" speed="9.44" length="15.15" shape="55.94,60.89 55.43,60.82 51.53,58.48 49.18,54.57 48.40,49.10"/>
    </edge>
    <edge id=":center_12" function="internal">
        <lane id=":center_12_0" index="0" disallow="pedestrian" speed="3.65" length="3.23" shape="59.70,60.80 59.30,60.00 59.70,59.20 60.90,58.40"/>
    </edge>
    <edge id=":center_4" function="internal">
        <lane id=":center_4_0" index="0" disallow="pedestrian" speed="6.76" length="9.84" shape="54.80,49.10 55.18,51.77 56.32,53.67 58.23,54.82 60.90,55.20"/>
    </edge>
    <edge id=":center_5" function="internal">
        <lane id=":center_5_0" index="0" disallow="pedestrian" speed="9.44" length="20.16" shape="51.60,49.10 50.82,54.57 48.48,58.47 44.57,60.82 39.10,61.60"/>
    </edge>
    <edge id=":center_6" function="internal">
        <lane id=":center_6_0" index="0" disallow="pedestrian" speed="3.65" length="4.67" shape="51.60,49.10 50.80,50.30 50.00,50.70 49.20,50.30 48.40,49.10"/>
    </edge>
    <edge id=":center_7" function="internal">
        <lane id=":center_7_0" index="0" disallow="pedestrian" speed="6.76" length="5.59" shape="39.10,55.20 41.77,54.82 43.67,53.68 44.02,53.10"/>
    </edge>
    <edge id=":center_8" function="internal">
        <lane id=":center_8_0" index="0" disallow="pedestrian" speed="13.89" length="21.80" shape="39.10,55.20 60.90,55.20"/>
        <lane id=":center_8_1" index="1" disallow="pedestrian" speed="13.89" length="21.80" shape="39.10,58.40 60.90,58.40"/>
    </edge>
    <edge id=":center_10" function="internal">
        <lane id=":center_10_0" index="0" disallow="pedestrian" speed="3.65" length="1.44" shape="39.10,58.40 40.30,59.20"/>
    </edge>
    <edge id=":center_13" function="internal">
        <lane id=":center_13_0" index="0" disallow="pedestrian" speed="6.76" length="4.25" shape="44.02,53.10 44.82,51.77 45.20,49.10"/>
    </edge>
    <edge id=":center_14" function="internal">
        <lane id=":center_14_0" index="0" disallow="pedestrian" speed="3.65" length="3.23" shape="40.30,59.20 40.70,60.00 40.30,60.80 39.10,61.60"/>
    </edge>
    <edge id=":center_c0" function="crossing" crossingEdges="right_out right_in">
        <lane id=":center_c0_0" index="0" allow="pedestrian" speed="2.78" length="12.80" width="4.00" shape="58.90,53.60 58.90,66.40" outlineShape="60.90,53.60 60.90,66.50 56.90,66.40 56.90,51.60 57.52,52.47 58.40,53.10 59.53,53.47"/>
    </edge>
    <edge id=":center_c1" function="crossing" crossingEdges="stem_out stem_in">
        <lane id=":center_c1_0" index="0" allow="pedestrian" speed="2.78" length="12.80" width="4.00" shape="43.60,51.10 56.40,51.10" outlineShape="43.60,49.10 56.40,49.10 56.53,50.47 56.90,51.60 57.52,52.47 58.40,53.10 41.60,53.10 42.47,52.48 43.10,51.60 43.47,50.48"/>
    </edge>
    <edge id=":center_c2" function="crossing" crossingEdges="left_out left_in">
        <lane id=":center_c2_0" index="0" allow="pedestrian" speed="2.78" length="12.80" width="4.00" shape="41.10,66.40 41.10,53.60" outlineShape="39.10,66.50 39.10,53.60 40.47,53.48 41.60,53.10 42.47,52.48 43.10,51.60 43.10,66.40"/>
    </edge>
    <edge id=":center_w0" function="walkingarea">
        <lane id=":center_w0_0" index="0" allow="pedestrian" speed="2.78" length="14.05" width="4.00" shape="43.10,66.40 39.10,66.40 39.10,69.40 60.90,69.40 60.90,66.40 56.90,66.40"/>
    </edge>
    <edge id=":center_w1" function="walkingarea">
        <lane id=":center_w1_0" index="0" allow="pedestrian" speed="2.78" length="3.67" width="4.00" shape="60.90,53.60 60.90,50.60 59.40,49.10 56.40,49.10 56.53,50.47 56.90,51.60 57.52,52.47 58.40,53.10 59.53,53.47"/>
    </edge>
    <edge id=":center_w2" function="walkingarea">
        <lane id=":center_w2_0" index="0" allow="pedestrian" speed="2.78" length="3.67" width="4.00" shape="43.60,49.10 40.60,49.10 39.10,50.60 39.10,53.60 40.47,53.48 41.60,53.10 42.47,52.48 43.10,51.60 43.47,50.48"/>
    </edge>
    <edge id=":left_0" function="internal">
        <lane id=":left_0_0" index="0" disallow="pedestrian" speed="3.65" length="4.67" shape="0.00,61.60 -1.20,60.80 -1.60,60.00 -1.20,59.20 0.00,58.40"/>
    </edge>
    <edge id=":left_w0" function="walkingarea">
        <lane id=":left_w0_0" index="0" allow="pedestrian" speed="2.78" length="15.80" width="3.00" shape="0.00,53.60 0.00,50.60 0.00,69.40 0.00,66.40"/>
    </edge>
    <edge id=":right_0" function="internal">
        <lane id=":right_0_0" index="0" disallow="pedestrian" speed="3.65" length="4.67" shape="100.00,58.40 101.20,59.20 101.60,60.00 101.20,60.80 100.00,61.60"/>
    </edge>
    <edge id=":right_w0" function="walkingarea">
        <lane id=":right_w0_0" index="0" allow="pedestrian" speed="2.78" length="15.80" width="3.00" shape="100.00,66.40 100.00,69.40 100.00,50.60 100.00,53.60"/>
    </edge>
    <edge id=":stem_0" function="internal">
        <lane id=":stem_0_0" index="0" disallow="pedestrian" speed="3.65" length="4.67" shape="48.40,0.00 49.20,-1.20 50.00,-1.60 50.80,-1.20 51.60,0.00"/>
    </edge>
    <edge id=":stem_w0" function="walkingarea">
        <lane id=":stem_w0_0" index="0" allow="pedestrian" speed="2.78" length="15.80" width="3.00" shape="56.40,0.00 59.40,0.00 40.60,0.00 43.60,0.00"/>
    </edge>

    <edge id="left_in" from="left" to="center" priority="1">
        <lane id="left_in_0" index="0" allow="pedestrian" speed="13.89" length="39.10" width="3.00" shape="0.00,52.10 39.10,52.10"/>
        <lane id="left_in_1" index="1" disallow="pedestrian" speed="13.89" length="39.10" shape="0.00,55.20 39.10,55.20"/>
        <lane id="left_in_2" index="2" disallow="pedestrian" speed="13.89" length="39.10" shape="0.00,58.40 39.10,58.40"/>
    </edge>
    <edge id="left_out" from="center" to="left" priority="1">
        <lane id="left_out_0" index="0" allow="pedestrian" speed="13.89" length="39.10" width="3.00" shape="39.10,67.90 0.00,67.90"/>
        <lane id="left_out_1" index="1" disallow="pedestrian" speed="13.89" length="39.10" shape="39.10,64.80 0.00,64.80"/>
        <lane id="left_out_2" index="2" disallow="pedestrian" speed="13.89" length="39.10" shape="39.10,61.60 0.00,61.60"/>
    </edge>
    <edge id="right_in" from="right" to="center" priority="1">
        <lane id="right_in_0" index="0" allow="pedestrian" speed="13.89" length="39.10" width="3.00" shape="100.00,67.90 60.90,67.90"/>
        <lane id="right_in_1" index="1" disallow="pedestrian" speed="13.89" length="39.10" shape="100.00,64.80 60.90,64.80"/>
        <lane id="right_in_2" index="2" disallow="pedestrian" speed="13.89" length="39.10" shape="100.00,61.60 60.90,61.60"/>
    </edge>
    <edge id="right_out" from="center" to="right" priority="1">
        <lane id="right_out_0" index="0" allow="pedestrian" speed="13.89" length="39.10" width="3.00" shape="60.90,52.10 100.00,52.10"/>
        <lane id="right_out_1" index="1" disallow="pedestrian" speed="13.89" length="39.10" shape="60.90,55.20 100.00,55.20"/>
        <lane id="right_out_2" index="2" disallow="pedestrian" speed="13.89" length="39.10" shape="60.90,58.40 100.00,58.40"/>
    </edge>
    <edge id="stem_in" from="stem" to="center" priority="-1">
        <lane id="stem_in_0" index="0" allow="pedestrian" speed="13.89" length="49.10" width="3.00" shape="57.90,0.00 57.90,49.10"/>
        <lane id="stem_in_1" index="1" disallow="pedestrian" speed="13.89" length="49.10" shape="54.80,0.00 54.80,49.10"/>
        <lane id="stem_in_2" index="2" disallow="pedestrian" speed="13.89" length="49.10" shape="51.60,0.00 51.60,49.10"/>
    </edge>
    <edge id="stem_out" from="center" to="stem" priority="-1">
        <lane id="stem_out_0" index="0" allow="pedestrian" speed="13.89" length="49.10" width="3.00" shape="42.10,49.10 42.10,0.00"/>
        <lane id="stem_out_1" index="1" disallow="pedestrian" speed="13.89" length="49.10" shape="45.20,49.10 45.20,0.00"/>
        <lane id="stem_out_2" index="2" disallow="pedestrian" speed="13.89" length="49.10" shape="48.40,49.10 48.40,0.00"/>
    </edge>

    <junction id="center" type="priority" x="50.00" y="60.00" incLanes="right_in_0 right_in_1 right_in_2 stem_in_0 stem_in_1 stem_in_2 left_in_0 left_in_1 left_in_2 :center_w1_0 :center_w2_0 :center_w0_0" intLanes=":center_0_0 :center_0_1 :center_11_0 :center_12_0 :center_4_0 :center_5_0 :center_6_0 :center_13_0 :center_8_0 :center_8_1 :center_14_0 :center_c0_0 :center_c1_0 :center_c2_0" shape="60.90,69.40 60.90,50.60 60.07,50.43 59.78,50.23 59.57,49.93 59.44,49.56 59.40,49.10 40.60,49.10 40.43,49.93 40.23,50.22 39.93,50.43 39.56,50.56 39.10,50.60 39.10,69.40">
        <request index="0"  response="00000000000000" foes="10110000100000" cont="0"/>
        <request index="1"  response="00000000000000" foes="10110000100000" cont="0"/>
        <request index="2"  response="01001100000000" foes="01101101100000" cont="1"/>
        <request index="3"  response="00001100000000" foes="00101100000000" cont="1"/>
        <request index="4"  response="00101100000000" foes="01101100000000" cont="0"/>
        <request index="5"  response="10001100000111" foes="11011100000111" cont="0"/>
        <request index="6"  response="00000000000100" foes="01000000000100" cont="0"/>
        <request index="7"  response="01000000000000" foes="11000000000000" cont="1"/>
        <request index="8"  response="00000000000000" foes="10100000111100" cont="0"/>
        <request index="9"  response="00000000000000" foes="10100000111100" cont="0"/>
        <request index="10" response="00000000100011" foes="10000000100011" cont="1"/>
        <request index="11" response="00001100001111" foes="00001100011111" cont="0"/>
        <request index="12" response="00000001110000" foes="00000011110100" cont="0"/>
        <request index="13" response="00011110000011" foes="00011110100011" cont="0"/>
    </junction>
    <junction id="left" type="priority" x="0.00" y="60.00" incLanes="left_out_0 left_out_1 left_out_2" intLanes=":left_0_0" shape="0.00,60.00 0.00,69.40 0.00,60.00">
        <request index="0" response="0" foes="0" cont="0"/>
    </junction>
    <junction id="right" type="priority" x="100.00" y="60.00" incLanes="right_out_0 right_out_1 right_out_2" intLanes=":right_0_0" shape="100.00,60.00 100.00,50.60 100.00,60.00">
        <request index="0" response="0" foes="0" cont="0"/>
    </junction>
    <junction id="stem" type="priority" x="50.00" y="0.00" incLanes="stem_out_0 stem_out_1 stem_out_2" intLanes=":stem_0_0" shape="50.00,0.00 40.60,0.00 50.00,0.00">
        <request index="0" response="0" foes="0" cont="0"/>
    </junction>

    <junction id=":center_11_0" type="internal" x="55.94" y="60.89" incLanes=":center_2_0 left_in_1 left_in_2" intLanes=":center_5_0 :center_6_0 :center_7_0 :center_8_0 :center_8_1 :center_c0_0 :center_c1_0"/>
    <junction id=":center_12_0" type="internal" x="59.70" y="60.80" incLanes=":center_3_0 left_in_1 left_in_2 stem_in_1" intLanes=":center_4_0 :center_8_0 :center_8_1 :center_c0_0 :center_c0_0"/>
    <junction id=":center_13_0" type="internal" x="44.02" y="53.10" incLanes=":center_7_0" intLanes=":center_2_0 :center_6_0 :center_c1_0 :center_c2_0"/>
    <junction id=":center_14_0" type="internal" x="40.30" y="59.20" incLanes=":center_10_0 right_in_1 right_in_2 stem_in_2" intLanes=":center_0_0 :center_0_1 :center_5_0 :center_c2_0 :center_c2_0"/>

    <connection from="left_in" to="stem_out" fromLane="1" toLane="1" via=":center_7_0" dir="r" state="m"/>
    <connection from="left_in" to="right_out" fromLane="1" toLane="1" via=":center_8_0" dir="s" state="M"/>
    <connection from="left_in" to="right_out" fromLane="2" toLane="2" via=":center_8_1" dir="s" state="M"/>
    <connection from="left_in" to="left_out" fromLane="2" toLane="2" via=":center_10_0" dir="t" state="m"/>
    <connection from="left_out" to="left_in" fromLane="2" toLane="2" via=":left_0_0" dir="t" state="M"/>
    <connection from="right_in" to="left_out" fromLane="1" toLane="1" via=":center_0_0" dir="s" state="M"/>
    <connection from="right_in" to="left_out" fromLane="2" toLane="2" via=":center_0_1" dir="s" state="M"/>
    <connection from="right_in" to="stem_out" fromLane="2" toLane="2" via=":center_2_0" dir="l" state="m"/>
    <connection from="right_in" to="right_out" fromLane="2" toLane="2" via=":center_3_0" dir="t" state="m"/>
    <connection from="right_out" to="right_in" fromLane="2" toLane="2" via=":right_0_0" dir="t" state="M"/>
    <connection from="stem_in" to="right_out" fromLane="1" toLane="1" via=":center_4_0" dir="r" state="m"/>
    <connection from="stem_in" to="left_out" fromLane="2" toLane="2" via=":center_5_0" dir="l" state="m"/>
    <connection from="stem_in" to="stem_out" fromLane="2" toLane="2" via=":center_6_0" dir="t" state="m"/>
    <connection from="stem_out" to="stem_in" fromLane="2" toLane="2" via=":stem_0_0" dir="t" state="M"/>

    <connection from=":center_0" to="left_out" fromLane="0" toLane="1" dir="s" state="M"/>
    <connection from=":center_0" to="left_out" fromLane="1" toLane="2" dir="s" state="M"/>
    <connection from=":center_2" to="stem_out" fromLane="0" toLane="2" via=":center_11_0" dir="l" state="m"/>
    <connection from=":center_11" to="stem_out" fromLane="0" toLane="2" dir="l" state="m"/>
    <connection from=":center_3" to="right_out" fromLane="0" toLane="2" via=":center_12_0" dir="t" state="m"/>
    <connection from=":center_12" to="right_out" fromLane="0" toLane="2" dir="t" state="m"/>
    <connection from=":center_4" to="right_out" fromLane="0" toLane="1" dir="r" state="M"/>
    <connection from=":center_5" to="left_out" fromLane="0" toLane="2" dir="l" state="M"/>
    <connection from=":center_6" to="stem_out" fromLane="0" toLane="2" dir="t" state="M"/>
    <connection from=":center_7" to="stem_out" fromLane="0" toLane="1" via=":center_13_0" dir="r" state="m"/>
    <connection from=":center_13" to="stem_out" fromLane="0" toLane="1" dir="r" state="m"/>
    <connection from=":center_8" to="right_out" fromLane="0" toLane="1" dir="s" state="M"/>
    <connection from=":center_8" to="right_out" fromLane="1" toLane="2" dir="s" state="M"/>
    <connection from=":center_10" to="left_out" fromLane="0" toLane="2" via=":center_14_0" dir="t" state="m"/>
    <connection from=":center_14" to="left_out" fromLane="0" toLane="2" dir="t" state="m"/>
    <connection from=":left_0" to="left_in" fromLane="0" toLane="2" dir="t" state="M"/>
    <connection from=":right_0" to="right_in" fromLane="0" toLane="2" dir="t" state="M"/>
    <connection from=":stem_0" to="stem_in" fromLane="0" toLane="2" dir="t" state="M"/>

    <connection from=":center_c0" to=":center_w0" fromLane="0" toLane="0" dir="s" state="M"/>
    <connection from=":center_c1" to=":center_w1" fromLane="0" toLane="0" dir="s" state="M"/>
    <connection from=":center_c2" to=":center_w2" fromLane="0" toLane="0" dir="s" state="M"/>
    <connection from=":center_w0" to=":center_c2" fromLane="0" toLane="0" dir="s" state="m"/>
    <connection from=":center_w0" to="left_out" fromLane="0" toLane="0" dir="s" state="M"/>
    <connection from="right_in" to=":center_w0" fromLane="0" toLane="0" dir="s" state="M"/>
    <connection from=":center_w1" to=":center_c0" fromLane="0" toLane="0" dir="s" state="m"/>
    <connection from=":center_w1" to="right_out" fromLane="0" toLane="0" dir="s" state="M"/>
    <connection from="stem_in" to=":center_w1" fromLane="0" toLane="0" dir="s" state="M"/>
    <connection from=":center_w2" to=":center_c1" fromLane="0" toLane="0" dir="s" state="m"/>
    <connection from=":center_w2" to="stem_out" fromLane="0" toLane="0" dir="s" state="M"/>
    <connection from="left_in" to=":center_w2" fromLane="0" toLane="0" dir="s" state="M"/>
    <connection from=":left_w0" to="left_in" fromLane="0" toLane="0" dir="s" state="M"/>
    <connection from="left_out" to=":left_w0" fromLane="0" toLane="0" dir="s" state="M"/>
    <connection from=":right_w0" to="right_in" fromLane="0" toLane="0" dir="s" state="M"/>
    <connection from="right_out" to=":right_w0" fromLane="0" toLane="0" dir="s" state="M"/>
    <connection from=":stem_w0" to="stem_in" fromLane="0" toLane="0" dir="s" state="M"/>
    <connection from="stem_out" to=":stem_w0" fromLane="0" toLane="0" dir="s" state="M"/>
</net>
