<?xml version="1.0" encoding="UTF-8"?>
<additional>
  <poly id="ground" type="grass" color="0.35,0.65,0.25,1" fill="1" layer="-10" shape="-65.0,-65.0 65.0,-65.0 65.0,65.0 -65.0,65.0"/>
</additional>
