<?xml version="1.0" encoding="UTF-8"?>
<additional>
  <poly id="pothole" type="pothole" color="1.0,0.3,0.1" fill="1" layer="5" shape="46.00,58.00 54.00,58.00 54.00,62.00 46.00,62.00" lineWidth="0.3"/>
</additional>
