<?xml version="1.0" encoding="UTF-8"?>
<additional>
  <poly id="pothole" type="pothole" color="0.2,0.15,0.1" fill="1" layer="1" shape="-4,-2 4,-2 4,2 -4,2" lineWidth="0.5"/>
</additional>
